New Linecode.lc7 nphases=2 units=kft      !ohms per 1000 ft
~ rmatrix=[  0.50000000   0.12500000 |  0.12500000   0.50000000 ]
~ xmatrix=[  0.25000000   0.00000000 |  0.00000000   0.00000000 ]
~ cmatrix=[  5.00000000  -2.50000000 | -2.50000000   5.00000000 ]
~ Normamps=250  {250 5.0 *}
