new object=circuit.test3
~ isc3=9538.8

new line.l1 bus1=sourcebus bus2=b1

new load.ld1 bus1=b2
