
Clear

new object=Circuit.TEST2

! Test circuit properties
~ pu=1.1  r1=0.001  x1=0.01  r0=0.001  x0=0.01  basekv=69  angle=30

Redirect test2_linecodes.dss
Compile test2_loadshape.dss

! Lines
New Line.L1  bus1=b1 bus2=_b2 length=0.001 units=mi r1=0.001 r0=0.001 x1=0.01 x0=0.01 c1=0 c0=0
New Line.L1-2 bus1=b3-1.2 bus2=b4.2 length=0.032175613 units=km Linecode=lc1
New Line.L2 bus1=b5 bus2=b6_check-chars length=0.013516796 units=none linecode=lc/2
New "Line.L3" phases=3 bus1=b7.1.2.3 bus2=b9.1.2.3 linecode=300 normamps=400 emergamps=600 faultrate=0.1 pctperm=20 repair=0 length=2.58
New "Line._L4" phases=3 bus1=b8.1.2.3 bus2=b10.1.2.3 linecode=300 normamps=400 emergamps=600 faultrate=0.1 pctperm=20 repair=0 length=1.73

! Loads
New Load.ld1 phases=2 Bus1=b7.1.2  kv=0.208  status=variable model=1 conn=wye kW=3.89   pf=0.97  Vminpu=.88
New "Load.ld2" bus1=b9 phases=3 conn=Wye model=5 kV=24.9 kW=27 kvar=21 Vminpu=.85
New "Load.ld3" bus1=b10 phases=3 conn=Wye model=2 kV=24.9 kW=405 kvar=315 Vminpu=.85

! Capacitors
New "Capacitor.c1" bus1=b5 phases=3 kvar=[ 250] kv=20.0
New "Capacitor.c2" bus1=b8 phases=3 kvar=[ 500] kv=25.0

! Reactors
New Reactor.reactor1  bus1=SourceBus  bus2=b1  r=0  x=(1.05 0.75 0.001 5 * - - 125 15.0 / sqr *) normamps=400  emergamps=600

! Transformers
New "Transformer.t1" phases=1 windings=2 buses=[sourcebus,  _b2, ] conns=[wye, wye, ] kVs=[15.0, 15.0, ] kVAs=[50000, 50000, ] Xhl=1
New "Transformer.t2" phases=3 windings=2 Xhl=0.02 buses=[sourcebus, b3-1, ] conns=[delta, wye, ] kVs=[69, 24.9, ] kVAs=[25000, 25000, ] taps=[1, 1, ] wdg=1 %R=0.0005 wdg=2 %R=0.0005
New Transformer.t3a phases=1  windings=2  buses=(b7.1,  b10.1)  conns=(wye, wye)  kvs=(10.0, 10)  kvas=(30000, 30000)  xhl=0.1 %loadloss=.002 wdg=2 Maxtap=1.05 Mintap=0.95 ppm=0
New Transformer.t4  phases=3  windings=2  buses=(b8, b9.1.2.3.0)
~ conns=(delta wye)
~ kvs=(115, 14.7)  kvas=(30000, 30000)
~ xhl=20.5  sub=y  subname=t4_sub
~ wdg=1  %r=0.75000
~ wdg=2  %r=0.75000

! Generators
New Generator.g1 Bus1=b1  kV= 150 kW=1 Model=3 Vpu=1.05 Maxkvar=70000 Minkvar=10000 !  kvar=50000
New Generator.g2 Bus1=sourcebus  kV= 120 kW=1 Phases=1 Model=3 Vpu=1.05 Maxkvar=70000 Minkvar=10000   !  kvar=60000

Set voltagebases=[115, 12.47, 0.48, 0.208]

Load.s860.vminpu=.85
Load.s840.vminpu=.85
Load.s844.vminpu=.85

Transformer.t1.wdg=2 Tap=(0.01000  15 * 1 +)   ! Tap
Transformer.t4.wdg=2 Tap=(0.00500   5 * 1 +)    ! Tap

Buscoords test2_buscoords.dss

Solve

show taps
