New "LoadShape.default" interval=1 npts=24 mult=[ 0.500 0.5000 0.5000 0.5000 0.5000  0.5000 0.500 0.7500 0.750 0.75 1.00 1.000 1.000 1.00 1.0000 1.000 1 2.000 1.000 1.000 0.750 0.750 0.750 0.750]
