
Clear

new object=Circuit.TEST2

! Test circuit properties
~ pu=1.1  r1=0.001  x1=0.01  r0=0.001  x0=0.01  basekv=69  angle=30 bus1=testsource

Redirect test2_Linecodes.dss
Compile test2_Loadshape.dss

! Lines
New Line.L1  bus1=b1 bus2=_b2 length=0.001 units=mi r1=0.001 r0=0.001 x1=0.01 x0=0.01 c1=0 c0=0 rg=0.01805 xg=0.155081 like=something
New Line.L1-2 bus1=b3-1.2 bus2=b4.2 length=0.032175613 units=km Linecode=lc1
New Line.L2 bus1=b5 bus2=b6_check-chars length=0.013516796 units=none linecode=lc/2
New "Line.L3" phases=3 bus1=b7.1.2.3 bus2=b9.1.2.3 linecode=300 normamps=400 emergamps=600 faultrate=0.1 pctperm=20 repair=0 length=2.58
New "Line._L4" phases=3 bus1=b8.1.2.3 bus2=b10.1.2.3 linecode=300 normamps=400 emergamps=600 faultrate=0.1 pctperm=20 repair=0 length=1.73
New line.l5 phases=3 bus1=_b2.1.2.3.0 bus2=b7.1.2.3.0 linecode=lc8
New line.l6 phases=3 bus1=b1.1.2.3 bus2=b10.1.2.3 linecode=lc9
new line.l7 bus1=_b2 bus2=b10 like=L2 linecode=lc10 switch=y

! Loads
New Load.ld1 phases=2 Bus1=b7.1.2  kv=0.208  status=variable model=1 conn=wye kW=3.89   pf=0.97  Vminpu=.88
New "Load.ld2" bus1=b9 phases=3 conn=Wye model=5 kV=24.9 kW=27 kvar=21 Vminpu=.85
New "Load.ld3" bus1=b10 phases=3 conn=Wye model=2 kV=24.9 kW=405 kvar=315 Vminpu=.85
new load.ld4 bus1=b1 like=ld2
New "Load.ld2" bus1=b9 phases=3 conn=Wye model=5 kV=24.9 kW=27 kvar=21 Vminpu=.85

! Capacitors
New "Capacitor.c1" bus1=b5 phases=3 kvar=[ 250] kv=20.0
New "Capacitor.c2" bus1=b8 phases=3 kvar=[ 500] kv=25.0
new capacitor.c3 bus1=b1 like=c2

! Reactors
New Reactor.reactor1  bus1=testsource  bus2=b1  r=0  x=(1.05 0.75 0.001 5 * - - 125 15.0 / sqr *) normamps=400  emergamps=600
new reactor.reactor2 bus1=_b2 bus2=b10 like=reactor1
new reactor.reactor3 bus1=b9 kvar=10.0
new reactor.reactor4 bus1=b8 like=reactor3

! Transformers
New "Transformer.t1" phases=1 windings=2 buses=[testsource,  _b2, ] conns=[wye, wye, ] kVs=[15.0, 15.0, ] kVAs=[50000, 50000, ] Xhl=1
New "Transformer.t2" phases=3 windings=2 Xhl=0.02 buses=[testsource, b3-1, ] conns=[delta, wye, ] kVs=[69, 24.9, ] kVAs=[25000, 25000, ] taps=[1, 1, ] wdg=1 %R=0.0005 wdg=2 %R=0.0005
New Transformer.t3a phases=1  windings=2  buses=(b7.1,  b10.1)  conns=(wye, wye)  kvs=(10.0, 10)  kvas=(30000, 30000)  xhl=0.1 %loadloss=.002 wdg=2 Maxtap=1.05 Mintap=0.95 ppm=0
New Transformer.t4  phases=3  windings=2  buses=(b8, b9.1.2.3.0)
~ conns=(delta wye)
! 14.7->115 for kvs[2], otherwise inconsistent voltage base
~ kvs=(115, 115)  kvas=(30000, 30000)
~ xhl=20.5  sub=y  subname=t4_sub
~ wdg=1  %r=0.75000
~ wdg=2  %r=0.75000
new transformer.t5 buses=(b3-1, b5) like=t4

! Generators
New Generator.g1 Bus1=b1  kV= 150 kW=1 Model=3 Vpu=1.05 Maxkvar=70000 Minkvar=10000 !  kvar=50000
New Generator.g2 Bus1=testsource  kV= 120 kW=1 Phases=1 Model=3 Vpu=1.05 Maxkvar=70000 Minkvar=10000   !  kvar=60000
new generator.g3 bus1=b7 like=g2

Set voltagebases=[115, 12.47, 0.48, 0.208]

Load.s860.vminpu=.85
Load.s840.vminpu=.85
Load.s844.vminpu=.85

Transformer.t1.wdg=2 Tap=(0.01000  15 * 1 +)   ! Tap
Transformer.t4.wdg=2 Tap=(0.00500   5 * 1 +)    ! Tap

Buscoords test2_Buscoords.dss

Solve

show taps
new Line.l8 bus1=b10 bus2=b11 linecode=lc/2 units=mi length=(0.013516796 1 1.6093 / *)
